*Heading
BISSHOPP AND DRUCKER -- LARGE DISPLACEMENT ANALYSIS
*Node
10,
60,70.
*NGEN,NSET=N1
10,60,5
*Element,type=B21
1,10,15
*ELGEN,elset=E1
1,10,5,1
*Beam Section, elset=E1,material=MATE1, section=RECT
10,20.
*Material, name=MATE1
*Elastic
210000, 0.3
*Boundary
60,1,2
60,6
*RESTART,WRITE,FREQUENCY=2
*STEP,NLGEOM,INC=25
LARGE ROTATION ANALYSIS
*Static
0.2,1.0,0.01,1.0
*Cload
10,2,-10
*ENERGY PRINT,FREQ=5
*NODE PRINT,SUMMARY=NO
U,RF,CF
*EL PRINT,FREQ=5,SUMMARY=NO
S,E,
COORD,
SF,
*OUTPUT,FIELD
*NODE OUTPUT,NSET=N1
U,
*ELEMENT OUTPUT,ELSET=E1
S,
E,
*end step