1

   Abaqus 6.14-3                                  Date 17-10-2017   Time 17:06:12
   For use by Supplied By SSQ under license from Dassault Systemes or its subsidiary.

                                                                                 
                                                                                 
 STEP    1     INCREMENT     1     STEP TIME    0.00    


                        S T E P       1     S T A T I C   A N A L Y S I S


                                                                                          

     AUTOMATIC TIME CONTROL WITH -
          A SUGGESTED INITIAL TIME INCREMENT OF                1.000E-02
          AND A TOTAL TIME PERIOD OF                            1.00    
          THE MINIMUM TIME INCREMENT ALLOWED IS                1.000E-04
          THE MAXIMUM TIME INCREMENT ALLOWED IS                 1.00    

     LINEAR EQUATION SOLVER TYPE         DIRECT SPARSE

 CONVERGENCE TOLERANCE PARAMETERS FOR FORCE    
     CRITERION FOR RESIDUAL FORCE     FOR A NONLINEAR PROBLEM          5.000E-03
     CRITERION FOR DISP.    CORRECTION IN A NONLINEAR PROBLEM          1.000E-02
     INITIAL VALUE OF TIME AVERAGE FORCE                               1.000E-02
     AVERAGE FORCE     IS TIME AVERAGE FORCE    
     ALTERNATE CRIT. FOR RESIDUAL FORCE     FOR A NONLINEAR PROBLEM    2.000E-02
     CRITERION FOR ZERO FORCE     RELATIVE TO TIME AVRG. FORCE         1.000E-05
     CRITERION FOR RESIDUAL FORCE     WHEN THERE IS ZERO FLUX          1.000E-05
     CRITERION FOR DISP.    CORRECTION WHEN THERE IS ZERO FLUX         1.000E-03
     CRITERION FOR RESIDUAL FORCE     FOR A LINEAR INCREMENT           1.000E-08
     FIELD CONVERSION RATIO                                             1.00    
     CRITERION FOR ZERO FORCE     REL. TO TIME AVRG. MAX. FORCE        1.000E-05
     CRITERION FOR ZERO DISP.    RELATIVE TO CHARACTERISTIC LENGTH     1.000E-08

 CONVERGENCE TOLERANCE PARAMETERS FOR MOMENT   
     CRITERION FOR RESIDUAL MOMENT    FOR A NONLINEAR PROBLEM          5.000E-03
     CRITERION FOR ROTATION CORRECTION IN A NONLINEAR PROBLEM          1.000E-02
     INITIAL VALUE OF TIME AVERAGE MOMENT                              1.000E-02
     AVERAGE MOMENT    IS TIME AVERAGE MOMENT   
     ALTERNATE CRIT. FOR RESIDUAL MOMENT    FOR A NONLINEAR PROBLEM    2.000E-02
     CRITERION FOR ZERO MOMENT    RELATIVE TO TIME AVRG. MOMENT        1.000E-05
     CRITERION FOR RESIDUAL MOMENT    WHEN THERE IS ZERO FLUX          1.000E-05
     CRITERION FOR ROTATION CORRECTION WHEN THERE IS ZERO FLUX         1.000E-03
     CRITERION FOR RESIDUAL MOMENT    FOR A LINEAR INCREMENT           1.000E-08
     FIELD CONVERSION RATIO                                             1.00    
     CRITERION FOR ZERO MOMENT    REL. TO TIME AVRG. MAX. MOMENT       1.000E-05

     VOLUMETRIC STRAIN COMPATIBILITY TOLERANCE FOR HYBRID SOLIDS       1.000E-05
     AXIAL STRAIN COMPATIBILITY TOLERANCE FOR HYBRID BEAMS             1.000E-05
     TRANS. SHEAR STRAIN COMPATIBILITY TOLERANCE FOR HYBRID BEAMS      1.000E-05
     SOFT CONTACT CONSTRAINT COMPATIBILITY TOLERANCE FOR P>P0          5.000E-03
     SOFT CONTACT CONSTRAINT COMPATIBILITY TOLERANCE FOR P=0.0         0.100    
     CONTACT FORCE ERROR TOLERANCE FOR CONVERT SDI=YES                 1.00    
     DISPLACEMENT COMPATIBILITY TOLERANCE FOR DCOUP ELEMENTS           1.000E-05
     ROTATION COMPATIBILITY TOLERANCE FOR DCOUP ELEMENTS               1.000E-05

 EQUILIBRIUM WILL BE CHECKED FOR SEVERE DISCONTINUITY ITERATIONS

 TIME INCREMENTATION CONTROL PARAMETERS:
     FIRST EQUILIBRIUM ITERATION FOR CONSECUTIVE DIVERGENCE CHECK              4
     EQUILIBRIUM ITERATION AT WHICH LOG. CONVERGENCE RATE CHECK BEGINS         8
     EQUILIBRIUM ITERATION AFTER WHICH ALTERNATE RESIDUAL IS USED              9
     MAXIMUM EQUILIBRIUM ITERATIONS ALLOWED                                   16
     EQUILIBRIUM ITERATION COUNT FOR CUT-BACK IN NEXT INCREMENT               10
     MAXIMUM EQUILIB. ITERS IN TWO INCREMENTS FOR TIME INCREMENT INCREASE      4
     MAXIMUM ITERATIONS FOR SEVERE DISCONTINUITIES                            50
     MAXIMUM CUT-BACKS ALLOWED IN AN INCREMENT                                 5
     MAXIMUM DISCON. ITERS IN TWO INCREMENTS FOR TIME INCREMENT INCREASE      50
     MAXIMUM CONTACT AUGMENTATIONS FOR *SURFACE BEHAVIOR,AUGMENTED LAGRANGE   50
     CUT-BACK FACTOR AFTER DIVERGENCE                                 0.2500    
     CUT-BACK FACTOR FOR TOO SLOW CONVERGENCE                         0.5000    
     CUT-BACK FACTOR AFTER TOO MANY EQUILIBRIUM ITERATIONS            0.7500    
     CUT-BACK FACTOR AFTER TOO MANY SEVERE DISCONTINUITY ITERATIONS   0.2500    
     CUT-BACK FACTOR AFTER PROBLEMS IN ELEMENT ASSEMBLY               0.2500    
     INCREASE FACTOR AFTER TWO INCREMENTS THAT CONVERGE QUICKLY        1.500    
     MAX. TIME INCREMENT INCREASE FACTOR ALLOWED                       1.500    
     MAX. TIME INCREMENT INCREASE FACTOR ALLOWED (DYNAMICS)            1.250    
     MAX. TIME INCREMENT INCREASE FACTOR ALLOWED (DIFFUSION)           2.000    
     MINIMUM TIME INCREMENT RATIO FOR EXTRAPOLATION TO OCCUR          0.1000    
     MAX. RATIO OF TIME INCREMENT TO STABILITY LIMIT                   1.000    
     FRACTION OF STABILITY LIMIT FOR NEW TIME INCREMENT               0.9500    
     TIME INCREMENT INCREASE FACTOR BEFORE A TIME POINT                1.000    
     GLOBAL STABILIZATION CONTROL IS NOT USED

          PRINT OF INCREMENT NUMBER, TIME, ETC., EVERY    1  INCREMENTS

     RESTART FILE WILL BE WRITTEN EVERY     1  INCREMENTS

     THE MAXIMUM NUMBER OF INCREMENTS IN THIS STEP IS                   10000

          LARGE DISPLACEMENT THEORY WILL BE USED

     LINEAR EXTRAPOLATION WILL BE USED

     CHARACTERISTIC ELEMENT LENGTH      20.0    

     DETAILS REGARDING ACTUAL SOLUTION WAVEFRONT REQUESTED

     DETAILED OUTPUT OF DIAGNOSTICS TO DATABASE REQUESTED

     PRINT OF INCREMENT NUMBER, TIME, ETC., TO THE MESSAGE FILE EVERY     1  INCREMENTS

     COLLECTING MODEL CONSTRAINT INFORMATION FOR OVERCONSTRAINT CHECKS

     COLLECTING STEP CONSTRAINT INFORMATION FOR OVERCONSTRAINT CHECKS


  INCREMENT     1 STARTS. ATTEMPT NUMBER  1, TIME INCREMENT  1.000E-02

  NUMBER OF EQUATIONS =       18     NUMBER OF FLOATING PT. OPERATIONS =  6.33E+02

     CHECK POINT   START OF SOLVER    

     CHECK POINT  END OF SOLVER       

       ELAPSED USER TIME (SEC)      =   0.0000    
       ELAPSED SYSTEM TIME (SEC)    =   0.0000    
       ELAPSED TOTAL CPU TIME (SEC) =   0.0000    
       ELAPSED WALLCLOCK TIME (SEC) =          0

               CONVERGENCE CHECKS FOR EQUILIBRIUM ITERATION     1


 AVERAGE FORCE                       2.81       TIME AVG. FORCE        2.81    
 LARGEST RESIDUAL FORCE              10.4       AT NODE          1   DOF  1
 LARGEST INCREMENT OF DISP.         0.475       AT NODE          1   DOF  2
 LARGEST CORRECTION TO DISP.        0.475       AT NODE          1   DOF  2
          FORCE     EQUILIBRIUM NOT ACHIEVED WITHIN TOLERANCE.

 AVERAGE MOMENT                      10.0       TIME AVG. MOMENT       10.0    
 LARGEST RESIDUAL MOMENT            1.090E-02   AT NODE          2   DOF  6
 LARGEST INCREMENT OF ROTATION     -7.143E-03   AT NODE          1   DOF  6
 LARGEST CORRECTION TO ROTATION    -7.143E-03   AT NODE          1   DOF  6
          ROTATION CORRECTION TOO LARGE COMPARED TO ROTATION INCREMENT

  NUMBER OF EQUATIONS =       18     NUMBER OF FLOATING PT. OPERATIONS =  6.33E+02

     CHECK POINT   START OF SOLVER    

     CHECK POINT  END OF SOLVER       

       ELAPSED USER TIME (SEC)      =  0.10000    
       ELAPSED SYSTEM TIME (SEC)    =   0.0000    
       ELAPSED TOTAL CPU TIME (SEC) =  0.10000    
       ELAPSED WALLCLOCK TIME (SEC) =          0

               CONVERGENCE CHECKS FOR EQUILIBRIUM ITERATION     2


 AVERAGE FORCE                      0.105       TIME AVG. FORCE       0.105    
 LARGEST RESIDUAL FORCE            -1.288E-04   AT NODE          1   DOF  1
 LARGEST INCREMENT OF DISP.         0.475       AT NODE          1   DOF  2
 LARGEST CORRECTION TO DISP.        1.344E-03   AT NODE          1   DOF  1
          THE FORCE     EQUILIBRIUM EQUATIONS HAVE CONVERGED

 AVERAGE MOMENT                      10.0       TIME AVG. MOMENT       10.0    
 LARGEST RESIDUAL MOMENT           -1.300E-04   AT NODE          4   DOF  6
 LARGEST INCREMENT OF ROTATION     -7.143E-03   AT NODE          1   DOF  6
 LARGEST CORRECTION TO ROTATION     7.654E-08   AT NODE          1   DOF  6
          THE MOMENT    EQUILIBRIUM EQUATIONS HAVE CONVERGED

 ITERATION SUMMARY FOR THE INCREMENT:   2 TOTAL ITERATIONS, OF WHICH
   0 ARE SEVERE DISCONTINUITY ITERATIONS AND  2 ARE EQUILIBRIUM ITERATIONS.

 TIME INCREMENT COMPLETED  1.000E-02,  FRACTION OF STEP COMPLETED  1.000E-02
 STEP TIME COMPLETED       1.000E-02,  TOTAL TIME COMPLETED        1.000E-02

     RESTART INFORMATION WRITTEN IN STEP   1  AFTER INCREMENT     1


  INCREMENT     2 STARTS. ATTEMPT NUMBER  1, TIME INCREMENT  1.000E-02

  NUMBER OF EQUATIONS =       18     NUMBER OF FLOATING PT. OPERATIONS =  6.33E+02

     CHECK POINT   START OF SOLVER    

     CHECK POINT  END OF SOLVER       

       ELAPSED USER TIME (SEC)      =   0.0000    
       ELAPSED SYSTEM TIME (SEC)    =   0.0000    
       ELAPSED TOTAL CPU TIME (SEC) =   0.0000    
       ELAPSED WALLCLOCK TIME (SEC) =          0

               CONVERGENCE CHECKS FOR EQUILIBRIUM ITERATION     1


 AVERAGE FORCE                      0.232       TIME AVG. FORCE       0.168    
 LARGEST RESIDUAL FORCE            -5.153E-04   AT NODE          1   DOF  1
 LARGEST INCREMENT OF DISP.         0.475       AT NODE          1   DOF  2
 LARGEST CORRECTION TO DISP.        2.688E-03   AT NODE          1   DOF  1
          THE FORCE     EQUILIBRIUM EQUATIONS HAVE CONVERGED

 AVERAGE MOMENT                      22.2       TIME AVG. MOMENT       16.1    
 LARGEST RESIDUAL MOMENT           -5.192E-04   AT NODE          4   DOF  6
 LARGEST INCREMENT OF ROTATION     -7.142E-03   AT NODE          1   DOF  6
 LARGEST CORRECTION TO ROTATION     6.552E-07   AT NODE          1   DOF  6
          THE MOMENT    EQUILIBRIUM EQUATIONS HAVE CONVERGED
          TIME INCREMENT MAY NOW INCREASE TO    1.500E-02

 ITERATION SUMMARY FOR THE INCREMENT:   1 TOTAL ITERATIONS, OF WHICH
   0 ARE SEVERE DISCONTINUITY ITERATIONS AND  1 ARE EQUILIBRIUM ITERATIONS.

 TIME INCREMENT COMPLETED  1.000E-02,  FRACTION OF STEP COMPLETED  2.000E-02
 STEP TIME COMPLETED       2.000E-02,  TOTAL TIME COMPLETED        2.000E-02

     RESTART INFORMATION WRITTEN IN STEP   1  AFTER INCREMENT     2


  INCREMENT     3 STARTS. ATTEMPT NUMBER  1, TIME INCREMENT  1.500E-02

  NUMBER OF EQUATIONS =       18     NUMBER OF FLOATING PT. OPERATIONS =  6.33E+02

     CHECK POINT   START OF SOLVER    

     CHECK POINT  END OF SOLVER       

       ELAPSED USER TIME (SEC)      =   0.0000    
       ELAPSED SYSTEM TIME (SEC)    =   0.0000    
       ELAPSED TOTAL CPU TIME (SEC) =   0.0000    
       ELAPSED WALLCLOCK TIME (SEC) =          0

               CONVERGENCE CHECKS FOR EQUILIBRIUM ITERATION     1


 AVERAGE FORCE                      0.406       TIME AVG. FORCE       0.247    
 LARGEST RESIDUAL FORCE            -1.811E-03   AT NODE          1   DOF  1
 LARGEST INCREMENT OF DISP.         0.712       AT NODE          1   DOF  2
 LARGEST CORRECTION TO DISP.        5.036E-03   AT NODE          1   DOF  1
          FORCE     EQUILIBRIUM NOT ACHIEVED WITHIN TOLERANCE.

 AVERAGE MOMENT                      35.0       TIME AVG. MOMENT       22.4    
 LARGEST RESIDUAL MOMENT           -1.699E-03   AT NODE          4   DOF  6
 LARGEST INCREMENT OF ROTATION     -1.071E-02   AT NODE          1   DOF  6
 LARGEST CORRECTION TO ROTATION     2.929E-06   AT NODE          1   DOF  6
          THE MOMENT    EQUILIBRIUM EQUATIONS HAVE CONVERGED

  NUMBER OF EQUATIONS =       18     NUMBER OF FLOATING PT. OPERATIONS =  6.33E+02

     CHECK POINT   START OF SOLVER    

     CHECK POINT  END OF SOLVER       

       ELAPSED USER TIME (SEC)      =   0.0000    
       ELAPSED SYSTEM TIME (SEC)    =   0.0000    
       ELAPSED TOTAL CPU TIME (SEC) =   0.0000    
       ELAPSED WALLCLOCK TIME (SEC) =          0

               CONVERGENCE CHECKS FOR EQUILIBRIUM ITERATION     2


 AVERAGE FORCE                      0.700       TIME AVG. FORCE       0.345    
 LARGEST RESIDUAL FORCE             1.109E-07   AT NODE          1   DOF  1
 LARGEST INCREMENT OF DISP.         0.712       AT NODE          1   DOF  2
 LARGEST CORRECTION TO DISP.       -3.760E-05   AT NODE          1   DOF  2
          THE FORCE     EQUILIBRIUM EQUATIONS HAVE CONVERGED

 AVERAGE MOMENT                      38.9       TIME AVG. MOMENT       23.7    
 LARGEST RESIDUAL MOMENT            7.566E-08   AT NODE          3   DOF  6
 LARGEST INCREMENT OF ROTATION     -1.071E-02   AT NODE          1   DOF  6
 LARGEST CORRECTION TO ROTATION     8.017E-07   AT NODE          1   DOF  6
          THE MOMENT    EQUILIBRIUM EQUATIONS HAVE CONVERGED
          TIME INCREMENT MAY NOW INCREASE TO    2.250E-02

 ITERATION SUMMARY FOR THE INCREMENT:   2 TOTAL ITERATIONS, OF WHICH
   0 ARE SEVERE DISCONTINUITY ITERATIONS AND  2 ARE EQUILIBRIUM ITERATIONS.

 TIME INCREMENT COMPLETED  1.500E-02,  FRACTION OF STEP COMPLETED  3.500E-02
 STEP TIME COMPLETED       3.500E-02,  TOTAL TIME COMPLETED        3.500E-02

     RESTART INFORMATION WRITTEN IN STEP   1  AFTER INCREMENT     3


  INCREMENT     4 STARTS. ATTEMPT NUMBER  1, TIME INCREMENT  2.250E-02

  NUMBER OF EQUATIONS =       18     NUMBER OF FLOATING PT. OPERATIONS =  6.33E+02

     CHECK POINT   START OF SOLVER    

     CHECK POINT  END OF SOLVER       

       ELAPSED USER TIME (SEC)      =   0.0000    
       ELAPSED SYSTEM TIME (SEC)    =   0.0000    
       ELAPSED TOTAL CPU TIME (SEC) =   0.0000    
       ELAPSED WALLCLOCK TIME (SEC) =          0

               CONVERGENCE CHECKS FOR EQUILIBRIUM ITERATION     1


 AVERAGE FORCE                      0.604       TIME AVG. FORCE       0.410    
 LARGEST RESIDUAL FORCE            -9.148E-03   AT NODE          1   DOF  1
 LARGEST INCREMENT OF DISP.          1.07       AT NODE          1   DOF  2
 LARGEST CORRECTION TO DISP.        1.131E-02   AT NODE          1   DOF  1
          FORCE     EQUILIBRIUM NOT ACHIEVED WITHIN TOLERANCE.

 AVERAGE MOMENT                      57.5       TIME AVG. MOMENT       32.1    
 LARGEST RESIDUAL MOMENT           -6.242E-03   AT NODE          4   DOF  6
 LARGEST INCREMENT OF ROTATION     -1.606E-02   AT NODE          1   DOF  6
 LARGEST CORRECTION TO ROTATION     9.103E-06   AT NODE          1   DOF  6
          THE MOMENT    EQUILIBRIUM EQUATIONS HAVE CONVERGED

  NUMBER OF EQUATIONS =       18     NUMBER OF FLOATING PT. OPERATIONS =  6.33E+02

     CHECK POINT   START OF SOLVER    

     CHECK POINT  END OF SOLVER       

       ELAPSED USER TIME (SEC)      =   0.0000    
       ELAPSED SYSTEM TIME (SEC)    =   0.0000    
       ELAPSED TOTAL CPU TIME (SEC) =   0.0000    
       ELAPSED WALLCLOCK TIME (SEC) =          0

               CONVERGENCE CHECKS FOR EQUILIBRIUM ITERATION     2


 AVERAGE FORCE                       1.15       TIME AVG. FORCE       0.547    
 LARGEST RESIDUAL FORCE             1.673E-06   AT NODE          1   DOF  1
 LARGEST INCREMENT OF DISP.          1.07       AT NODE          1   DOF  2
 LARGEST CORRECTION TO DISP.       -1.406E-04   AT NODE          1   DOF  2
          THE FORCE     EQUILIBRIUM EQUATIONS HAVE CONVERGED

 AVERAGE MOMENT                      63.9       TIME AVG. MOMENT       33.7    
 LARGEST RESIDUAL MOMENT            6.273E-07   AT NODE          3   DOF  6
 LARGEST INCREMENT OF ROTATION     -1.605E-02   AT NODE          1   DOF  6
 LARGEST CORRECTION TO ROTATION     2.992E-06   AT NODE          1   DOF  6
          THE MOMENT    EQUILIBRIUM EQUATIONS HAVE CONVERGED
          TIME INCREMENT MAY NOW INCREASE TO    3.375E-02

 ITERATION SUMMARY FOR THE INCREMENT:   2 TOTAL ITERATIONS, OF WHICH
   0 ARE SEVERE DISCONTINUITY ITERATIONS AND  2 ARE EQUILIBRIUM ITERATIONS.

 TIME INCREMENT COMPLETED  2.250E-02,  FRACTION OF STEP COMPLETED  5.750E-02
 STEP TIME COMPLETED       5.750E-02,  TOTAL TIME COMPLETED        5.750E-02

     RESTART INFORMATION WRITTEN IN STEP   1  AFTER INCREMENT     4


  INCREMENT     5 STARTS. ATTEMPT NUMBER  1, TIME INCREMENT  3.375E-02

  NUMBER OF EQUATIONS =       18     NUMBER OF FLOATING PT. OPERATIONS =  6.33E+02

     CHECK POINT   START OF SOLVER    

     CHECK POINT  END OF SOLVER       

       ELAPSED USER TIME (SEC)      =   0.0000    
       ELAPSED SYSTEM TIME (SEC)    =   0.0000    
       ELAPSED TOTAL CPU TIME (SEC) =   0.0000    
       ELAPSED WALLCLOCK TIME (SEC) =          0

               CONVERGENCE CHECKS FOR EQUILIBRIUM ITERATION     1


 AVERAGE FORCE                      0.965       TIME AVG. FORCE       0.630    
 LARGEST RESIDUAL FORCE            -4.602E-02   AT NODE          1   DOF  1
 LARGEST INCREMENT OF DISP.          1.60       AT NODE          1   DOF  2
 LARGEST CORRECTION TO DISP.        2.533E-02   AT NODE          1   DOF  1
          FORCE     EQUILIBRIUM NOT ACHIEVED WITHIN TOLERANCE.

 AVERAGE MOMENT                      91.1       TIME AVG. MOMENT       45.2    
 LARGEST RESIDUAL MOMENT           -2.196E-02   AT NODE          4   DOF  6
 LARGEST INCREMENT OF ROTATION     -2.404E-02   AT NODE          1   DOF  6
 LARGEST CORRECTION TO ROTATION     3.476E-05   AT NODE          1   DOF  6
          THE MOMENT    EQUILIBRIUM EQUATIONS HAVE CONVERGED

  NUMBER OF EQUATIONS =       18     NUMBER OF FLOATING PT. OPERATIONS =  6.33E+02

     CHECK POINT   START OF SOLVER    

     CHECK POINT  END OF SOLVER       

       ELAPSED USER TIME (SEC)      =   0.0000    
       ELAPSED SYSTEM TIME (SEC)    =   0.0000    
       ELAPSED TOTAL CPU TIME (SEC) =   0.0000    
       ELAPSED WALLCLOCK TIME (SEC) =          0

               CONVERGENCE CHECKS FOR EQUILIBRIUM ITERATION     2


 AVERAGE FORCE                       1.34       TIME AVG. FORCE       0.705    
 LARGEST RESIDUAL FORCE             2.287E-05   AT NODE          1   DOF  1
 LARGEST INCREMENT OF DISP.          1.60       AT NODE          1   DOF  2
 LARGEST CORRECTION TO DISP.       -5.135E-04   AT NODE          1   DOF  2
          THE FORCE     EQUILIBRIUM EQUATIONS HAVE CONVERGED

 AVERAGE MOMENT                      101.       TIME AVG. MOMENT       47.2    
 LARGEST RESIDUAL MOMENT            4.991E-06   AT NODE          3   DOF  6
 LARGEST INCREMENT OF ROTATION     -2.403E-02   AT NODE          1   DOF  6
 LARGEST CORRECTION TO ROTATION     1.089E-05   AT NODE          1   DOF  6
          THE MOMENT    EQUILIBRIUM EQUATIONS HAVE CONVERGED
          TIME INCREMENT MAY NOW INCREASE TO    5.063E-02

 ITERATION SUMMARY FOR THE INCREMENT:   2 TOTAL ITERATIONS, OF WHICH
   0 ARE SEVERE DISCONTINUITY ITERATIONS AND  2 ARE EQUILIBRIUM ITERATIONS.

 TIME INCREMENT COMPLETED  3.375E-02,  FRACTION OF STEP COMPLETED  9.125E-02
 STEP TIME COMPLETED       9.125E-02,  TOTAL TIME COMPLETED        9.125E-02

     RESTART INFORMATION WRITTEN IN STEP   1  AFTER INCREMENT     5


  INCREMENT     6 STARTS. ATTEMPT NUMBER  1, TIME INCREMENT  5.063E-02

  NUMBER OF EQUATIONS =       18     NUMBER OF FLOATING PT. OPERATIONS =  6.33E+02

     CHECK POINT   START OF SOLVER    

     CHECK POINT  END OF SOLVER       

       ELAPSED USER TIME (SEC)      =   0.0000    
       ELAPSED SYSTEM TIME (SEC)    =   0.0000    
       ELAPSED TOTAL CPU TIME (SEC) =   0.0000    
       ELAPSED WALLCLOCK TIME (SEC) =          0

               CONVERGENCE CHECKS FOR EQUILIBRIUM ITERATION     1


 AVERAGE FORCE                       1.53       TIME AVG. FORCE       0.842    
 LARGEST RESIDUAL FORCE            -0.229       AT NODE          1   DOF  1
 LARGEST INCREMENT OF DISP.          2.39       AT NODE          1   DOF  2
 LARGEST CORRECTION TO DISP.        5.635E-02   AT NODE          1   DOF  1
          FORCE     EQUILIBRIUM NOT ACHIEVED WITHIN TOLERANCE.

 AVERAGE MOMENT                      141.       TIME AVG. MOMENT       62.9    
 LARGEST RESIDUAL MOMENT           -7.425E-02   AT NODE          4   DOF  6
 LARGEST INCREMENT OF ROTATION     -3.593E-02   AT NODE          1   DOF  6
 LARGEST CORRECTION TO ROTATION     1.216E-04   AT NODE          1   DOF  6
          THE MOMENT    EQUILIBRIUM EQUATIONS HAVE CONVERGED

  NUMBER OF EQUATIONS =       18     NUMBER OF FLOATING PT. OPERATIONS =  6.33E+02

     CHECK POINT   START OF SOLVER    

     CHECK POINT  END OF SOLVER       

       ELAPSED USER TIME (SEC)      =   0.0000    
       ELAPSED SYSTEM TIME (SEC)    =   0.0000    
       ELAPSED TOTAL CPU TIME (SEC) =   0.0000    
       ELAPSED WALLCLOCK TIME (SEC) =          0

               CONVERGENCE CHECKS FOR EQUILIBRIUM ITERATION     2


 AVERAGE FORCE                       1.64       TIME AVG. FORCE       0.861    
 LARGEST RESIDUAL FORCE             3.070E-04   AT NODE          1   DOF  1
 LARGEST INCREMENT OF DISP.          2.38       AT NODE          1   DOF  2
 LARGEST CORRECTION TO DISP.       -1.885E-03   AT NODE          1   DOF  2
          THE FORCE     EQUILIBRIUM EQUATIONS HAVE CONVERGED

 AVERAGE MOMENT                      157.       TIME AVG. MOMENT       65.5    
 LARGEST RESIDUAL MOMENT            3.834E-05   AT NODE          3   DOF  6
 LARGEST INCREMENT OF ROTATION     -3.589E-02   AT NODE          1   DOF  6
 LARGEST CORRECTION TO ROTATION     3.970E-05   AT NODE          1   DOF  6
          THE MOMENT    EQUILIBRIUM EQUATIONS HAVE CONVERGED
          TIME INCREMENT MAY NOW INCREASE TO    7.594E-02

 ITERATION SUMMARY FOR THE INCREMENT:   2 TOTAL ITERATIONS, OF WHICH
   0 ARE SEVERE DISCONTINUITY ITERATIONS AND  2 ARE EQUILIBRIUM ITERATIONS.

 TIME INCREMENT COMPLETED  5.063E-02,  FRACTION OF STEP COMPLETED  0.142    
 STEP TIME COMPLETED       0.142    ,  TOTAL TIME COMPLETED        0.142    

     RESTART INFORMATION WRITTEN IN STEP   1  AFTER INCREMENT     6


  INCREMENT     7 STARTS. ATTEMPT NUMBER  1, TIME INCREMENT  7.594E-02

  NUMBER OF EQUATIONS =       18     NUMBER OF FLOATING PT. OPERATIONS =  6.33E+02

     CHECK POINT   START OF SOLVER    

     CHECK POINT  END OF SOLVER       

       ELAPSED USER TIME (SEC)      =   0.0000    
       ELAPSED SYSTEM TIME (SEC)    =   0.0000    
       ELAPSED TOTAL CPU TIME (SEC) =   0.0000    
       ELAPSED WALLCLOCK TIME (SEC) =          0

               CONVERGENCE CHECKS FOR EQUILIBRIUM ITERATION     1


 AVERAGE FORCE                       2.48       TIME AVG. FORCE        1.09    
 LARGEST RESIDUAL FORCE             -1.12       AT NODE          1   DOF  1
 LARGEST INCREMENT OF DISP.          3.54       AT NODE          1   DOF  2
 LARGEST CORRECTION TO DISP.        0.124       AT NODE          1   DOF  1
          FORCE     EQUILIBRIUM NOT ACHIEVED WITHIN TOLERANCE.

 AVERAGE MOMENT                      216.       TIME AVG. MOMENT       87.1    
 LARGEST RESIDUAL MOMENT           -0.238       AT NODE          4   DOF  6
 LARGEST INCREMENT OF ROTATION     -5.343E-02   AT NODE          1   DOF  6
 LARGEST CORRECTION TO ROTATION     4.048E-04   AT NODE          1   DOF  6
          THE MOMENT    EQUILIBRIUM EQUATIONS HAVE CONVERGED

  NUMBER OF EQUATIONS =       18     NUMBER OF FLOATING PT. OPERATIONS =  6.33E+02

     CHECK POINT   START OF SOLVER    

     CHECK POINT  END OF SOLVER       

       ELAPSED USER TIME (SEC)      =   0.0000    
       ELAPSED SYSTEM TIME (SEC)    =   0.0000    
       ELAPSED TOTAL CPU TIME (SEC) =   0.0000    
       ELAPSED WALLCLOCK TIME (SEC) =          0

               CONVERGENCE CHECKS FOR EQUILIBRIUM ITERATION     2


 AVERAGE FORCE                       2.52       TIME AVG. FORCE        1.10    
 LARGEST RESIDUAL FORCE             4.381E-03   AT NODE          1   DOF  1
 LARGEST INCREMENT OF DISP.          3.53       AT NODE          1   DOF  2
 LARGEST CORRECTION TO DISP.       -7.236E-03   AT NODE          1   DOF  2
          THE FORCE     EQUILIBRIUM EQUATIONS HAVE CONVERGED

 AVERAGE MOMENT                      240.       TIME AVG. MOMENT       90.5    
 LARGEST RESIDUAL MOMENT            2.805E-04   AT NODE          3   DOF  6
 LARGEST INCREMENT OF ROTATION     -5.328E-02   AT NODE          1   DOF  6
 LARGEST CORRECTION TO ROTATION     1.502E-04   AT NODE          1   DOF  6
          THE MOMENT    EQUILIBRIUM EQUATIONS HAVE CONVERGED
          TIME INCREMENT MAY NOW INCREASE TO    0.114    

 ITERATION SUMMARY FOR THE INCREMENT:   2 TOTAL ITERATIONS, OF WHICH
   0 ARE SEVERE DISCONTINUITY ITERATIONS AND  2 ARE EQUILIBRIUM ITERATIONS.

 TIME INCREMENT COMPLETED  7.594E-02,  FRACTION OF STEP COMPLETED  0.218    
 STEP TIME COMPLETED       0.218    ,  TOTAL TIME COMPLETED        0.218    

     RESTART INFORMATION WRITTEN IN STEP   1  AFTER INCREMENT     7


  INCREMENT     8 STARTS. ATTEMPT NUMBER  1, TIME INCREMENT  0.114    

  NUMBER OF EQUATIONS =       18     NUMBER OF FLOATING PT. OPERATIONS =  6.33E+02

     CHECK POINT   START OF SOLVER    

     CHECK POINT  END OF SOLVER       

       ELAPSED USER TIME (SEC)      =   0.0000    
       ELAPSED SYSTEM TIME (SEC)    =   0.0000    
       ELAPSED TOTAL CPU TIME (SEC) =   0.0000    
       ELAPSED WALLCLOCK TIME (SEC) =          0

               CONVERGENCE CHECKS FOR EQUILIBRIUM ITERATION     1


 AVERAGE FORCE                       4.31       TIME AVG. FORCE        1.50    
 LARGEST RESIDUAL FORCE             -5.27       AT NODE          1   DOF  1
 LARGEST INCREMENT OF DISP.          5.17       AT NODE          1   DOF  2
 LARGEST CORRECTION TO DISP.        0.263       AT NODE          1   DOF  1
          FORCE     EQUILIBRIUM NOT ACHIEVED WITHIN TOLERANCE.

 AVERAGE MOMENT                      326.       TIME AVG. MOMENT       120.    
 LARGEST RESIDUAL MOMENT           -0.688       AT NODE          4   DOF  6
 LARGEST INCREMENT OF ROTATION     -7.867E-02   AT NODE          1   DOF  6
 LARGEST CORRECTION TO ROTATION     1.246E-03   AT NODE          1   DOF  6
          MOMENT    EQUILIBRIUM NOT ACHIEVED WITHIN TOLERANCE.

  NUMBER OF EQUATIONS =       18     NUMBER OF FLOATING PT. OPERATIONS =  6.33E+02

     CHECK POINT   START OF SOLVER    

     CHECK POINT  END OF SOLVER       

       ELAPSED USER TIME (SEC)      =   0.0000    
       ELAPSED SYSTEM TIME (SEC)    =   0.0000    
       ELAPSED TOTAL CPU TIME (SEC) =   0.0000    
       ELAPSED WALLCLOCK TIME (SEC) =          0

               CONVERGENCE CHECKS FOR EQUILIBRIUM ITERATION     2


 AVERAGE FORCE                       3.49       TIME AVG. FORCE        1.40    
 LARGEST RESIDUAL FORCE             7.790E-02   AT NODE          1   DOF  1
 LARGEST INCREMENT OF DISP.          5.14       AT NODE          1   DOF  2
 LARGEST CORRECTION TO DISP.       -3.162E-02   AT NODE          1   DOF  2
          FORCE     EQUILIBRIUM NOT ACHIEVED WITHIN TOLERANCE.

 AVERAGE MOMENT                      361.       TIME AVG. MOMENT       124.    
 LARGEST RESIDUAL MOMENT            1.836E-03   AT NODE          3   DOF  6
 LARGEST INCREMENT OF ROTATION     -7.803E-02   AT NODE          1   DOF  6
 LARGEST CORRECTION TO ROTATION     6.384E-04   AT NODE          1   DOF  6
          THE MOMENT    EQUILIBRIUM EQUATIONS HAVE CONVERGED

  NUMBER OF EQUATIONS =       18     NUMBER OF FLOATING PT. OPERATIONS =  6.33E+02

     CHECK POINT   START OF SOLVER    

     CHECK POINT  END OF SOLVER       

       ELAPSED USER TIME (SEC)      =   0.0000    
       ELAPSED SYSTEM TIME (SEC)    =   0.0000    
       ELAPSED TOTAL CPU TIME (SEC) =   0.0000    
       ELAPSED WALLCLOCK TIME (SEC) =          0

               CONVERGENCE CHECKS FOR EQUILIBRIUM ITERATION     3


 AVERAGE FORCE                       3.84       TIME AVG. FORCE        1.44    
 LARGEST RESIDUAL FORCE             7.996E-04   AT NODE          1   DOF  1
 LARGEST INCREMENT OF DISP.          5.14       AT NODE          1   DOF  2
 LARGEST CORRECTION TO DISP.        3.681E-03   AT NODE          1   DOF  2
          THE FORCE     EQUILIBRIUM EQUATIONS HAVE CONVERGED

 AVERAGE MOMENT                      361.       TIME AVG. MOMENT       124.    
 LARGEST RESIDUAL MOMENT           -3.347E-05   AT NODE          3   DOF  6
 LARGEST INCREMENT OF ROTATION     -7.809E-02   AT NODE          1   DOF  6
 LARGEST CORRECTION TO ROTATION    -6.409E-05   AT NODE          1   DOF  6
          THE MOMENT    EQUILIBRIUM EQUATIONS HAVE CONVERGED
          TIME INCREMENT MAY NOW INCREASE TO    0.171    

 ITERATION SUMMARY FOR THE INCREMENT:   3 TOTAL ITERATIONS, OF WHICH
   0 ARE SEVERE DISCONTINUITY ITERATIONS AND  3 ARE EQUILIBRIUM ITERATIONS.

 TIME INCREMENT COMPLETED  0.114    ,  FRACTION OF STEP COMPLETED  0.332    
 STEP TIME COMPLETED       0.332    ,  TOTAL TIME COMPLETED        0.332    

     RESTART INFORMATION WRITTEN IN STEP   1  AFTER INCREMENT     8


  INCREMENT     9 STARTS. ATTEMPT NUMBER  1, TIME INCREMENT  0.171    

  NUMBER OF EQUATIONS =       18     NUMBER OF FLOATING PT. OPERATIONS =  6.33E+02

     CHECK POINT   START OF SOLVER    

     CHECK POINT  END OF SOLVER       

       ELAPSED USER TIME (SEC)      =  0.10000    
       ELAPSED SYSTEM TIME (SEC)    =   0.0000    
       ELAPSED TOTAL CPU TIME (SEC) =  0.10000    
       ELAPSED WALLCLOCK TIME (SEC) =          0

               CONVERGENCE CHECKS FOR EQUILIBRIUM ITERATION     1


 AVERAGE FORCE                       8.36       TIME AVG. FORCE        2.21    
 LARGEST RESIDUAL FORCE             -23.1       AT NODE          1   DOF  1
 LARGEST INCREMENT OF DISP.          7.36       AT NODE          1   DOF  2
 LARGEST CORRECTION TO DISP.        0.530       AT NODE          1   DOF  1
          FORCE     EQUILIBRIUM NOT ACHIEVED WITHIN TOLERANCE.

 AVERAGE MOMENT                      485.       TIME AVG. MOMENT       164.    
 LARGEST RESIDUAL MOMENT            -1.98       AT NODE          5   DOF  6
 LARGEST INCREMENT OF ROTATION     -0.114       AT NODE          1   DOF  6
 LARGEST CORRECTION TO ROTATION     3.358E-03   AT NODE          1   DOF  6
          MOMENT    EQUILIBRIUM NOT ACHIEVED WITHIN TOLERANCE.

  NUMBER OF EQUATIONS =       18     NUMBER OF FLOATING PT. OPERATIONS =  6.33E+02

     CHECK POINT   START OF SOLVER    

     CHECK POINT  END OF SOLVER       

       ELAPSED USER TIME (SEC)      =   0.0000    
       ELAPSED SYSTEM TIME (SEC)    =   0.0000    
       ELAPSED TOTAL CPU TIME (SEC) =   0.0000    
       ELAPSED WALLCLOCK TIME (SEC) =          0

               CONVERGENCE CHECKS FOR EQUILIBRIUM ITERATION     2


 AVERAGE FORCE                       6.15       TIME AVG. FORCE        1.96    
 LARGEST RESIDUAL FORCE              3.31       AT NODE          1   DOF  1
 LARGEST INCREMENT OF DISP.          7.14       AT NODE          1   DOF  2
 LARGEST CORRECTION TO DISP.       -0.220       AT NODE          1   DOF  2
          FORCE     EQUILIBRIUM NOT ACHIEVED WITHIN TOLERANCE.

 AVERAGE MOMENT                      479.       TIME AVG. MOMENT       164.    
 LARGEST RESIDUAL MOMENT            9.140E-03   AT NODE          4   DOF  6
 LARGEST INCREMENT OF ROTATION     -0.110       AT NODE          1   DOF  6
 LARGEST CORRECTION TO ROTATION     4.217E-03   AT NODE          1   DOF  6
 ESTIMATE OF ROTATION CORRECTION   -1.942E-05
 MOMENT    EQUILIB. ACCEPTED BASED ON SMALL RESIDUAL AND ESTIMATED CORRECTION

  NUMBER OF EQUATIONS =       18     NUMBER OF FLOATING PT. OPERATIONS =  6.33E+02

     CHECK POINT   START OF SOLVER    

     CHECK POINT  END OF SOLVER       

       ELAPSED USER TIME (SEC)      =   0.0000    
       ELAPSED SYSTEM TIME (SEC)    =   0.0000    
       ELAPSED TOTAL CPU TIME (SEC) =   0.0000    
       ELAPSED WALLCLOCK TIME (SEC) =          0

               CONVERGENCE CHECKS FOR EQUILIBRIUM ITERATION     3


 AVERAGE FORCE                       5.43       TIME AVG. FORCE        1.88    
 LARGEST RESIDUAL FORCE             0.570       AT NODE          1   DOF  1
 LARGEST INCREMENT OF DISP.          7.24       AT NODE          1   DOF  2
 LARGEST CORRECTION TO DISP.        9.787E-02   AT NODE          1   DOF  2
          FORCE     EQUILIBRIUM NOT ACHIEVED WITHIN TOLERANCE.

 AVERAGE MOMENT                      535.       TIME AVG. MOMENT       170.    
 LARGEST RESIDUAL MOMENT           -2.938E-03   AT NODE          2   DOF  6
 LARGEST INCREMENT OF ROTATION     -0.111       AT NODE          1   DOF  6
 LARGEST CORRECTION TO ROTATION    -1.740E-03   AT NODE          1   DOF  6
 ESTIMATE OF ROTATION CORRECTION    5.594E-04
 MOMENT    EQUILIB. ACCEPTED BASED ON SMALL RESIDUAL AND ESTIMATED CORRECTION

  NUMBER OF EQUATIONS =       18     NUMBER OF FLOATING PT. OPERATIONS =  6.33E+02

     CHECK POINT   START OF SOLVER    

     CHECK POINT  END OF SOLVER       

       ELAPSED USER TIME (SEC)      =   0.0000    
       ELAPSED SYSTEM TIME (SEC)    =   0.0000    
       ELAPSED TOTAL CPU TIME (SEC) =   0.0000    
       ELAPSED WALLCLOCK TIME (SEC) =          0

               CONVERGENCE CHECKS FOR EQUILIBRIUM ITERATION     4


 AVERAGE FORCE                       5.27       TIME AVG. FORCE        1.87    
 LARGEST RESIDUAL FORCE             2.276E-03   AT NODE          1   DOF  1
 LARGEST INCREMENT OF DISP.          7.25       AT NODE          1   DOF  2
 LARGEST CORRECTION TO DISP.        6.204E-03   AT NODE          1   DOF  2
          THE FORCE     EQUILIBRIUM EQUATIONS HAVE CONVERGED

 AVERAGE MOMENT                      535.       TIME AVG. MOMENT       170.    
 LARGEST RESIDUAL MOMENT           -3.503E-04   AT NODE          3   DOF  6
 LARGEST INCREMENT OF ROTATION     -0.111       AT NODE          1   DOF  6
 LARGEST CORRECTION TO ROTATION    -1.096E-04   AT NODE          1   DOF  6
          THE MOMENT    EQUILIBRIUM EQUATIONS HAVE CONVERGED
          TIME INCREMENT MAY NOW INCREASE TO    0.256    

 ITERATION SUMMARY FOR THE INCREMENT:   4 TOTAL ITERATIONS, OF WHICH
   0 ARE SEVERE DISCONTINUITY ITERATIONS AND  4 ARE EQUILIBRIUM ITERATIONS.

 TIME INCREMENT COMPLETED  0.171    ,  FRACTION OF STEP COMPLETED  0.503    
 STEP TIME COMPLETED       0.503    ,  TOTAL TIME COMPLETED        0.503    

     RESTART INFORMATION WRITTEN IN STEP   1  AFTER INCREMENT     9


  INCREMENT    10 STARTS. ATTEMPT NUMBER  1, TIME INCREMENT  0.256    

  NUMBER OF EQUATIONS =       18     NUMBER OF FLOATING PT. OPERATIONS =  6.33E+02

     CHECK POINT   START OF SOLVER    

     CHECK POINT  END OF SOLVER       

       ELAPSED USER TIME (SEC)      =   0.0000    
       ELAPSED SYSTEM TIME (SEC)    =   0.0000    
       ELAPSED TOTAL CPU TIME (SEC) =   0.0000    
       ELAPSED WALLCLOCK TIME (SEC) =          0

               CONVERGENCE CHECKS FOR EQUILIBRIUM ITERATION     1


 AVERAGE FORCE                       26.5       TIME AVG. FORCE        4.33    
 LARGEST RESIDUAL FORCE             -89.3       AT NODE          1   DOF  1
 LARGEST INCREMENT OF DISP.          10.0       AT NODE          1   DOF  2
 LARGEST CORRECTION TO DISP.        0.995       AT NODE          1   DOF  1
          FORCE     EQUILIBRIUM NOT ACHIEVED WITHIN TOLERANCE.

 AVERAGE MOMENT                      706.       TIME AVG. MOMENT       224.    
 LARGEST RESIDUAL MOMENT             7.97       AT NODE          2   DOF  6
 LARGEST INCREMENT OF ROTATION     -0.161       AT NODE          1   DOF  6
 LARGEST CORRECTION TO ROTATION     6.567E-03   AT NODE          1   DOF  6
          MOMENT    EQUILIBRIUM NOT ACHIEVED WITHIN TOLERANCE.

  NUMBER OF EQUATIONS =       18     NUMBER OF FLOATING PT. OPERATIONS =  6.33E+02

     CHECK POINT   START OF SOLVER    

     CHECK POINT  END OF SOLVER       

       ELAPSED USER TIME (SEC)      =   0.0000    
       ELAPSED SYSTEM TIME (SEC)    =   0.0000    
       ELAPSED TOTAL CPU TIME (SEC) =   0.0000    
       ELAPSED WALLCLOCK TIME (SEC) =          0
 

 ***WARNING: THE SYSTEM MATRIX HAS 1 NEGATIVE EIGENVALUES.

     NEGATIVE EIGENVALUES MEAN THAT THE SYSTEM MATRIX IS NOT 
     POSITIVE DEFINITE:
     FOR EXAMPLE, A BIFURCATION (BUCKLING) LOAD MAY HAVE BEEN EXCEEDED.

               CONVERGENCE CHECKS FOR EQUILIBRIUM ITERATION     2


 AVERAGE FORCE                       18.3       TIME AVG. FORCE        3.51    
 LARGEST RESIDUAL FORCE              27.7       AT NODE          1   DOF  1
 LARGEST INCREMENT OF DISP.          10.8       AT NODE          1   DOF  2
 LARGEST CORRECTION TO DISP.        0.730       AT NODE          1   DOF  2
          FORCE     EQUILIBRIUM NOT ACHIEVED WITHIN TOLERANCE.

 AVERAGE MOMENT                      724.       TIME AVG. MOMENT       225.    
 LARGEST RESIDUAL MOMENT            0.387       AT NODE          2   DOF  6
 LARGEST INCREMENT OF ROTATION     -0.173       AT NODE          1   DOF  6
 LARGEST CORRECTION TO ROTATION    -1.259E-02   AT NODE          1   DOF  6
 ESTIMATE OF ROTATION CORRECTION   -6.118E-04
 MOMENT    EQUILIB. ACCEPTED BASED ON SMALL RESIDUAL AND ESTIMATED CORRECTION

  NUMBER OF EQUATIONS =       18     NUMBER OF FLOATING PT. OPERATIONS =  6.33E+02

     CHECK POINT   START OF SOLVER    

     CHECK POINT  END OF SOLVER       

       ELAPSED USER TIME (SEC)      =   0.0000    
       ELAPSED SYSTEM TIME (SEC)    =   0.0000    
       ELAPSED TOTAL CPU TIME (SEC) =   0.0000    
       ELAPSED WALLCLOCK TIME (SEC) =          0

               CONVERGENCE CHECKS FOR EQUILIBRIUM ITERATION     3


 AVERAGE FORCE                       19.2       TIME AVG. FORCE        3.60    
 LARGEST RESIDUAL FORCE              33.7       AT NODE          1   DOF  1
 LARGEST INCREMENT OF DISP.          10.0       AT NODE          1   DOF  2
 LARGEST CORRECTION TO DISP.       -0.740       AT NODE          1   DOF  2
          FORCE     EQUILIBRIUM NOT ACHIEVED WITHIN TOLERANCE.

 AVERAGE MOMENT                      782.       TIME AVG. MOMENT       231.    
 LARGEST RESIDUAL MOMENT            9.615E-03   AT NODE          3   DOF  6
 LARGEST INCREMENT OF ROTATION     -0.159       AT NODE          1   DOF  6
 LARGEST CORRECTION TO ROTATION     1.394E-02   AT NODE          1   DOF  6
 ESTIMATE OF ROTATION CORRECTION    3.463E-04
 MOMENT    EQUILIB. ACCEPTED BASED ON SMALL RESIDUAL AND ESTIMATED CORRECTION

  NUMBER OF EQUATIONS =       18     NUMBER OF FLOATING PT. OPERATIONS =  6.33E+02

     CHECK POINT   START OF SOLVER    

     CHECK POINT  END OF SOLVER       

       ELAPSED USER TIME (SEC)      =   0.0000    
       ELAPSED SYSTEM TIME (SEC)    =   0.0000    
       ELAPSED TOTAL CPU TIME (SEC) =   0.0000    
       ELAPSED WALLCLOCK TIME (SEC) =          0

               CONVERGENCE CHECKS FOR EQUILIBRIUM ITERATION     4


 AVERAGE FORCE                       9.42       TIME AVG. FORCE        2.62    
 LARGEST RESIDUAL FORCE              4.15       AT NODE          1   DOF  1
 LARGEST INCREMENT OF DISP.          9.76       AT NODE          1   DOF  2
 LARGEST CORRECTION TO DISP.       -0.271       AT NODE          1   DOF  2
          FORCE     EQUILIBRIUM NOT ACHIEVED WITHIN TOLERANCE.

 AVERAGE MOMENT                      697.       TIME AVG. MOMENT       223.    
 LARGEST RESIDUAL MOMENT           -1.594E-02   AT NODE          4   DOF  6
 LARGEST INCREMENT OF ROTATION     -0.154       AT NODE          1   DOF  6
 LARGEST CORRECTION TO ROTATION     4.898E-03   AT NODE          1   DOF  6
          ROTATION CORRECTION TOO LARGE COMPARED TO ROTATION INCREMENT

  NUMBER OF EQUATIONS =       18     NUMBER OF FLOATING PT. OPERATIONS =  6.33E+02

     CHECK POINT   START OF SOLVER    

     CHECK POINT  END OF SOLVER       

       ELAPSED USER TIME (SEC)      =   0.0000    
       ELAPSED SYSTEM TIME (SEC)    =   0.0000    
       ELAPSED TOTAL CPU TIME (SEC) =   0.0000    
       ELAPSED WALLCLOCK TIME (SEC) =          0

               CONVERGENCE CHECKS FOR EQUILIBRIUM ITERATION     5


 AVERAGE FORCE                       8.52       TIME AVG. FORCE        2.53    
 LARGEST RESIDUAL FORCE              1.70       AT NODE          1   DOF  1
 LARGEST INCREMENT OF DISP.          9.59       AT NODE          1   DOF  2
 LARGEST CORRECTION TO DISP.       -0.169       AT NODE          1   DOF  2
          FORCE     EQUILIBRIUM NOT ACHIEVED WITHIN TOLERANCE.

 AVERAGE MOMENT                      770.       TIME AVG. MOMENT       230.    
 LARGEST RESIDUAL MOMENT           -1.451E-03   AT NODE          4   DOF  6
 LARGEST INCREMENT OF ROTATION     -0.151       AT NODE          1   DOF  6
 LARGEST CORRECTION TO ROTATION     3.110E-03   AT NODE          1   DOF  6
 ESTIMATE OF ROTATION CORRECTION   -4.692E-04
 MOMENT    EQUILIB. ACCEPTED BASED ON SMALL RESIDUAL AND ESTIMATED CORRECTION

  NUMBER OF EQUATIONS =       18     NUMBER OF FLOATING PT. OPERATIONS =  6.33E+02

     CHECK POINT   START OF SOLVER    

     CHECK POINT  END OF SOLVER       

       ELAPSED USER TIME (SEC)      =   0.0000    
       ELAPSED SYSTEM TIME (SEC)    =   0.0000    
       ELAPSED TOTAL CPU TIME (SEC) =   0.0000    
       ELAPSED WALLCLOCK TIME (SEC) =          0

               CONVERGENCE CHECKS FOR EQUILIBRIUM ITERATION     6


 AVERAGE FORCE                       7.95       TIME AVG. FORCE        2.48    
 LARGEST RESIDUAL FORCE             1.169E-02   AT NODE          1   DOF  1
 LARGEST INCREMENT OF DISP.          9.57       AT NODE          1   DOF  2
 LARGEST CORRECTION TO DISP.       -1.431E-02   AT NODE          1   DOF  2
          THE FORCE     EQUILIBRIUM EQUATIONS HAVE CONVERGED

 AVERAGE MOMENT                      770.       TIME AVG. MOMENT       230.    
 LARGEST RESIDUAL MOMENT           -1.386E-03   AT NODE          3   DOF  6
 LARGEST INCREMENT OF ROTATION     -0.151       AT NODE          1   DOF  6
 LARGEST CORRECTION TO ROTATION     2.608E-04   AT NODE          1   DOF  6
          THE MOMENT    EQUILIBRIUM EQUATIONS HAVE CONVERGED

 ITERATION SUMMARY FOR THE INCREMENT:   6 TOTAL ITERATIONS, OF WHICH
   0 ARE SEVERE DISCONTINUITY ITERATIONS AND  6 ARE EQUILIBRIUM ITERATIONS.

 TIME INCREMENT COMPLETED  0.256    ,  FRACTION OF STEP COMPLETED  0.759    
 STEP TIME COMPLETED       0.759    ,  TOTAL TIME COMPLETED        0.759    

     RESTART INFORMATION WRITTEN IN STEP   1  AFTER INCREMENT    10


  INCREMENT    11 STARTS. ATTEMPT NUMBER  1, TIME INCREMENT  0.241    

  NUMBER OF EQUATIONS =       18     NUMBER OF FLOATING PT. OPERATIONS =  6.33E+02

     CHECK POINT   START OF SOLVER    

     CHECK POINT  END OF SOLVER       

       ELAPSED USER TIME (SEC)      =   0.0000    
       ELAPSED SYSTEM TIME (SEC)    =   0.0000    
       ELAPSED TOTAL CPU TIME (SEC) =   0.0000    
       ELAPSED WALLCLOCK TIME (SEC) =          0

               CONVERGENCE CHECKS FOR EQUILIBRIUM ITERATION     1


 AVERAGE FORCE                       18.3       TIME AVG. FORCE        3.92    
 LARGEST RESIDUAL FORCE             -53.7       AT NODE          1   DOF  1
 LARGEST INCREMENT OF DISP.          7.83       AT NODE          1   DOF  2
 LARGEST CORRECTION TO DISP.        -1.18       AT NODE          1   DOF  2
          FORCE     EQUILIBRIUM NOT ACHIEVED WITHIN TOLERANCE.

 AVERAGE MOMENT                      875.       TIME AVG. MOMENT       289.    
 LARGEST RESIDUAL MOMENT             15.5       AT NODE          2   DOF  6
 LARGEST INCREMENT OF ROTATION     -0.130       AT NODE          1   DOF  6
 LARGEST CORRECTION TO ROTATION     1.180E-02   AT NODE          1   DOF  6
          MOMENT    EQUILIBRIUM NOT ACHIEVED WITHIN TOLERANCE.

  NUMBER OF EQUATIONS =       18     NUMBER OF FLOATING PT. OPERATIONS =  6.33E+02

     CHECK POINT   START OF SOLVER    

     CHECK POINT  END OF SOLVER       

       ELAPSED USER TIME (SEC)      =   0.0000    
       ELAPSED SYSTEM TIME (SEC)    =   0.0000    
       ELAPSED TOTAL CPU TIME (SEC) =   0.0000    
       ELAPSED WALLCLOCK TIME (SEC) =          0

               CONVERGENCE CHECKS FOR EQUILIBRIUM ITERATION     2


 AVERAGE FORCE                      6.520E+03   TIME AVG. FORCE        595.    
 LARGEST RESIDUAL FORCE             2.321E+04   AT NODE          1   DOF  1
 LARGEST INCREMENT OF DISP.         -10.1       AT NODE          1   DOF  2
 LARGEST CORRECTION TO DISP.        -17.9       AT NODE          1   DOF  2
          FORCE     EQUILIBRIUM NOT ACHIEVED WITHIN TOLERANCE.

 AVERAGE MOMENT                      616.       TIME AVG. MOMENT       265.    
 LARGEST RESIDUAL MOMENT           -1.093E+03   AT NODE          2   DOF  6
 LARGEST INCREMENT OF ROTATION      0.230       AT NODE          1   DOF  6
 LARGEST CORRECTION TO ROTATION     0.360       AT NODE          1   DOF  6
          MOMENT    EQUILIBRIUM NOT ACHIEVED WITHIN TOLERANCE.

  NUMBER OF EQUATIONS =       18     NUMBER OF FLOATING PT. OPERATIONS =  6.33E+02

     CHECK POINT   START OF SOLVER    

     CHECK POINT  END OF SOLVER       

       ELAPSED USER TIME (SEC)      =   0.0000    
       ELAPSED SYSTEM TIME (SEC)    =   0.0000    
       ELAPSED TOTAL CPU TIME (SEC) =   0.0000    
       ELAPSED WALLCLOCK TIME (SEC) =          0

               CONVERGENCE CHECKS FOR EQUILIBRIUM ITERATION     3


 AVERAGE FORCE                       147.       TIME AVG. FORCE        15.6    
 LARGEST RESIDUAL FORCE             -690.       AT NODE          1   DOF  1
 LARGEST INCREMENT OF DISP.         -10.8       AT NODE          1   DOF  2
 LARGEST CORRECTION TO DISP.         2.67       AT NODE          1   DOF  1
          FORCE     EQUILIBRIUM NOT ACHIEVED WITHIN TOLERANCE.

 AVERAGE MOMENT                      407.       TIME AVG. MOMENT       246.    
 LARGEST RESIDUAL MOMENT            -63.9       AT NODE          2   DOF  6
 LARGEST INCREMENT OF ROTATION      0.215       AT NODE          1   DOF  6
 LARGEST CORRECTION TO ROTATION    -1.427E-02   AT NODE          1   DOF  6
          MOMENT    EQUILIBRIUM NOT ACHIEVED WITHIN TOLERANCE.

  NUMBER OF EQUATIONS =       18     NUMBER OF FLOATING PT. OPERATIONS =  6.33E+02

     CHECK POINT   START OF SOLVER    

     CHECK POINT  END OF SOLVER       

       ELAPSED USER TIME (SEC)      =   0.0000    
       ELAPSED SYSTEM TIME (SEC)    =   0.0000    
       ELAPSED TOTAL CPU TIME (SEC) =   0.0000    
       ELAPSED WALLCLOCK TIME (SEC) =          0
 

 ***WARNING: THE SYSTEM MATRIX HAS 1 NEGATIVE EIGENVALUES.
             EXPLANATIONS ARE SUGGESTED AFTER THE FIRST OCCURRENCE OF THIS MESSAGE.

               CONVERGENCE CHECKS FOR EQUILIBRIUM ITERATION     4


 AVERAGE FORCE                       59.1       TIME AVG. FORCE        7.62    
 LARGEST RESIDUAL FORCE              319.       AT NODE          1   DOF  1
 LARGEST INCREMENT OF DISP.         -12.2       AT NODE          1   DOF  2
 LARGEST CORRECTION TO DISP.        -1.43       AT NODE          1   DOF  2
          FORCE     EQUILIBRIUM NOT ACHIEVED WITHIN TOLERANCE.

 AVERAGE MOMENT                      403.       TIME AVG. MOMENT       246.    
 LARGEST RESIDUAL MOMENT            -5.96       AT NODE          2   DOF  6
 LARGEST INCREMENT OF ROTATION      0.258       AT NODE          1   DOF  6
 LARGEST CORRECTION TO ROTATION     4.273E-02   AT NODE          1   DOF  6
          MOMENT    EQUILIBRIUM NOT ACHIEVED WITHIN TOLERANCE.

  NUMBER OF EQUATIONS =       18     NUMBER OF FLOATING PT. OPERATIONS =  6.33E+02

     CHECK POINT   START OF SOLVER    

     CHECK POINT  END OF SOLVER       

       ELAPSED USER TIME (SEC)      =   0.0000    
       ELAPSED SYSTEM TIME (SEC)    =   0.0000    
       ELAPSED TOTAL CPU TIME (SEC) =   0.0000    
       ELAPSED WALLCLOCK TIME (SEC) =          0

               CONVERGENCE CHECKS FOR EQUILIBRIUM ITERATION     5


 AVERAGE FORCE                       311.       TIME AVG. FORCE        30.5    
 LARGEST RESIDUAL FORCE             1.079E+03   AT NODE          1   DOF  1
 LARGEST INCREMENT OF DISP.         -7.99       AT NODE          1   DOF  2
 LARGEST CORRECTION TO DISP.         4.21       AT NODE          1   DOF  2
          FORCE     EQUILIBRIUM NOT ACHIEVED WITHIN TOLERANCE.

 AVERAGE MOMENT                      474.       TIME AVG. MOMENT       252.    
 LARGEST RESIDUAL MOMENT             7.39       AT NODE          2   DOF  6
 LARGEST INCREMENT OF ROTATION      0.182       AT NODE          1   DOF  6
 LARGEST CORRECTION TO ROTATION    -7.573E-02   AT NODE          1   DOF  6
          MOMENT    EQUILIBRIUM NOT ACHIEVED WITHIN TOLERANCE.
 

 ***NOTE: THE SOLUTION APPEARS TO BE DIVERGING. CONVERGENCE IS JUDGED UNLIKELY.


  INCREMENT    11 STARTS. ATTEMPT NUMBER  2, TIME INCREMENT  6.028E-02

  NUMBER OF EQUATIONS =       18     NUMBER OF FLOATING PT. OPERATIONS =  6.33E+02

     CHECK POINT   START OF SOLVER    

     CHECK POINT  END OF SOLVER       

       ELAPSED USER TIME (SEC)      =   0.0000    
       ELAPSED SYSTEM TIME (SEC)    =   0.0000    
       ELAPSED TOTAL CPU TIME (SEC) =   0.0000    
       ELAPSED WALLCLOCK TIME (SEC) =          0

               CONVERGENCE CHECKS FOR EQUILIBRIUM ITERATION     1


 AVERAGE FORCE                       8.69       TIME AVG. FORCE        3.04    
 LARGEST RESIDUAL FORCE            -0.945       AT NODE          1   DOF  1
 LARGEST INCREMENT OF DISP.          2.03       AT NODE          1   DOF  2
 LARGEST CORRECTION TO DISP.       -0.220       AT NODE          1   DOF  2
          FORCE     EQUILIBRIUM NOT ACHIEVED WITHIN TOLERANCE.

 AVERAGE MOMENT                      821.       TIME AVG. MOMENT       284.    
 LARGEST RESIDUAL MOMENT            -1.03       AT NODE          4   DOF  6
 LARGEST INCREMENT OF ROTATION     -3.295E-02   AT NODE          1   DOF  6
 LARGEST CORRECTION TO ROTATION     2.551E-03   AT NODE          1   DOF  6
 ESTIMATE OF ROTATION CORRECTION   -1.181E-04
 MOMENT    EQUILIB. ACCEPTED BASED ON SMALL RESIDUAL AND ESTIMATED CORRECTION

  NUMBER OF EQUATIONS =       18     NUMBER OF FLOATING PT. OPERATIONS =  6.33E+02

     CHECK POINT   START OF SOLVER    

     CHECK POINT  END OF SOLVER       

       ELAPSED USER TIME (SEC)      =   0.0000    
       ELAPSED SYSTEM TIME (SEC)    =   0.0000    
       ELAPSED TOTAL CPU TIME (SEC) =   0.0000    
       ELAPSED WALLCLOCK TIME (SEC) =          0

               CONVERGENCE CHECKS FOR EQUILIBRIUM ITERATION     2


 AVERAGE FORCE                       9.50       TIME AVG. FORCE        3.11    
 LARGEST RESIDUAL FORCE             4.497E-02   AT NODE          1   DOF  1
 LARGEST INCREMENT OF DISP.          2.01       AT NODE          1   DOF  2
 LARGEST CORRECTION TO DISP.       -2.060E-02   AT NODE          1   DOF  2
          FORCE     EQUILIBRIUM NOT ACHIEVED WITHIN TOLERANCE.

 AVERAGE MOMENT                      820.       TIME AVG. MOMENT       284.    
 LARGEST RESIDUAL MOMENT            1.077E-03   AT NODE          3   DOF  6
 LARGEST INCREMENT OF ROTATION     -3.243E-02   AT NODE          1   DOF  6
 LARGEST CORRECTION TO ROTATION     5.185E-04   AT NODE          1   DOF  6
 ESTIMATE OF ROTATION CORRECTION   -5.449E-07
 MOMENT    EQUILIB. ACCEPTED BASED ON SMALL RESIDUAL AND ESTIMATED CORRECTION

  NUMBER OF EQUATIONS =       18     NUMBER OF FLOATING PT. OPERATIONS =  6.33E+02

     CHECK POINT   START OF SOLVER    

     CHECK POINT  END OF SOLVER       

       ELAPSED USER TIME (SEC)      =   0.0000    
       ELAPSED SYSTEM TIME (SEC)    =   0.0000    
       ELAPSED TOTAL CPU TIME (SEC) =   0.0000    
       ELAPSED WALLCLOCK TIME (SEC) =          0

               CONVERGENCE CHECKS FOR EQUILIBRIUM ITERATION     3


 AVERAGE FORCE                       16.4       TIME AVG. FORCE        3.74    
 LARGEST RESIDUAL FORCE             1.104E-05   AT NODE          1   DOF  1
 LARGEST INCREMENT OF DISP.          2.01       AT NODE          1   DOF  2
 LARGEST CORRECTION TO DISP.        4.121E-04   AT NODE          1   DOF  2
          THE FORCE     EQUILIBRIUM EQUATIONS HAVE CONVERGED

 AVERAGE MOMENT                      820.       TIME AVG. MOMENT       284.    
 LARGEST RESIDUAL MOMENT           -4.477E-05   AT NODE          3   DOF  6
 LARGEST INCREMENT OF ROTATION     -3.244E-02   AT NODE          1   DOF  6
 LARGEST CORRECTION TO ROTATION    -8.184E-06   AT NODE          1   DOF  6
          THE MOMENT    EQUILIBRIUM EQUATIONS HAVE CONVERGED

 ITERATION SUMMARY FOR THE INCREMENT:   3 TOTAL ITERATIONS, OF WHICH
   0 ARE SEVERE DISCONTINUITY ITERATIONS AND  3 ARE EQUILIBRIUM ITERATIONS.

 TIME INCREMENT COMPLETED  6.028E-02,  FRACTION OF STEP COMPLETED  0.819    
 STEP TIME COMPLETED       0.819    ,  TOTAL TIME COMPLETED        0.819    

     RESTART INFORMATION WRITTEN IN STEP   1  AFTER INCREMENT    11


  INCREMENT    12 STARTS. ATTEMPT NUMBER  1, TIME INCREMENT  6.028E-02

  NUMBER OF EQUATIONS =       18     NUMBER OF FLOATING PT. OPERATIONS =  6.33E+02

     CHECK POINT   START OF SOLVER    

     CHECK POINT  END OF SOLVER       

       ELAPSED USER TIME (SEC)      =   0.0000    
       ELAPSED SYSTEM TIME (SEC)    =   0.0000    
       ELAPSED TOTAL CPU TIME (SEC) =   0.0000    
       ELAPSED WALLCLOCK TIME (SEC) =          0

               CONVERGENCE CHECKS FOR EQUILIBRIUM ITERATION     1


 AVERAGE FORCE                       9.23       TIME AVG. FORCE        4.20    
 LARGEST RESIDUAL FORCE            -3.464E-02   AT NODE          1   DOF  1
 LARGEST INCREMENT OF DISP.          1.93       AT NODE          1   DOF  2
 LARGEST CORRECTION TO DISP.       -8.395E-02   AT NODE          1   DOF  2
          FORCE     EQUILIBRIUM NOT ACHIEVED WITHIN TOLERANCE.

 AVERAGE MOMENT                      782.       TIME AVG. MOMENT       325.    
 LARGEST RESIDUAL MOMENT           -0.403       AT NODE          4   DOF  6
 LARGEST INCREMENT OF ROTATION     -3.143E-02   AT NODE          1   DOF  6
 LARGEST CORRECTION TO ROTATION     1.009E-03   AT NODE          1   DOF  6
 ESTIMATE OF ROTATION CORRECTION   -1.293E-04
 MOMENT    EQUILIB. ACCEPTED BASED ON SMALL RESIDUAL AND ESTIMATED CORRECTION

  NUMBER OF EQUATIONS =       18     NUMBER OF FLOATING PT. OPERATIONS =  6.33E+02

     CHECK POINT   START OF SOLVER    

     CHECK POINT  END OF SOLVER       

       ELAPSED USER TIME (SEC)      =   0.0000    
       ELAPSED SYSTEM TIME (SEC)    =   0.0000    
       ELAPSED TOTAL CPU TIME (SEC) =   0.0000    
       ELAPSED WALLCLOCK TIME (SEC) =          0

               CONVERGENCE CHECKS FOR EQUILIBRIUM ITERATION     2


 AVERAGE FORCE                       11.4       TIME AVG. FORCE        4.38    
 LARGEST RESIDUAL FORCE             3.518E-03   AT NODE          1   DOF  1
 LARGEST INCREMENT OF DISP.          1.92       AT NODE          1   DOF  2
 LARGEST CORRECTION TO DISP.       -5.426E-03   AT NODE          1   DOF  2
          THE FORCE     EQUILIBRIUM EQUATIONS HAVE CONVERGED

 AVERAGE MOMENT                      869.       TIME AVG. MOMENT       332.    
 LARGEST RESIDUAL MOMENT           -9.099E-05   AT NODE          5   DOF  6
 LARGEST INCREMENT OF ROTATION     -3.129E-02   AT NODE          1   DOF  6
 LARGEST CORRECTION TO ROTATION     1.464E-04   AT NODE          1   DOF  6
          THE MOMENT    EQUILIBRIUM EQUATIONS HAVE CONVERGED
          TIME INCREMENT MAY NOW INCREASE TO    9.042E-02

 ITERATION SUMMARY FOR THE INCREMENT:   2 TOTAL ITERATIONS, OF WHICH
   0 ARE SEVERE DISCONTINUITY ITERATIONS AND  2 ARE EQUILIBRIUM ITERATIONS.

 TIME INCREMENT COMPLETED  6.028E-02,  FRACTION OF STEP COMPLETED  0.879    
 STEP TIME COMPLETED       0.879    ,  TOTAL TIME COMPLETED        0.879    

     RESTART INFORMATION WRITTEN IN STEP   1  AFTER INCREMENT    12


  INCREMENT    13 STARTS. ATTEMPT NUMBER  1, TIME INCREMENT  9.042E-02

  NUMBER OF EQUATIONS =       18     NUMBER OF FLOATING PT. OPERATIONS =  6.33E+02

     CHECK POINT   START OF SOLVER    

     CHECK POINT  END OF SOLVER       

       ELAPSED USER TIME (SEC)      =   0.0000    
       ELAPSED SYSTEM TIME (SEC)    =   0.0000    
       ELAPSED TOTAL CPU TIME (SEC) =   0.0000    
       ELAPSED WALLCLOCK TIME (SEC) =          0

               CONVERGENCE CHECKS FOR EQUILIBRIUM ITERATION     1


 AVERAGE FORCE                       10.2       TIME AVG. FORCE        4.83    
 LARGEST RESIDUAL FORCE            -8.795E-02   AT NODE          5   DOF  1
 LARGEST INCREMENT OF DISP.          2.73       AT NODE          1   DOF  2
 LARGEST CORRECTION TO DISP.       -0.155       AT NODE          1   DOF  2
          FORCE     EQUILIBRIUM NOT ACHIEVED WITHIN TOLERANCE.

 AVERAGE MOMENT                      845.       TIME AVG. MOMENT       372.    
 LARGEST RESIDUAL MOMENT           -0.718       AT NODE          4   DOF  6
 LARGEST INCREMENT OF ROTATION     -4.504E-02   AT NODE          1   DOF  6
 LARGEST CORRECTION TO ROTATION     1.896E-03   AT NODE          1   DOF  6
 ESTIMATE OF ROTATION CORRECTION   -1.933E-04
 MOMENT    EQUILIB. ACCEPTED BASED ON SMALL RESIDUAL AND ESTIMATED CORRECTION

  NUMBER OF EQUATIONS =       18     NUMBER OF FLOATING PT. OPERATIONS =  6.33E+02

     CHECK POINT   START OF SOLVER    

     CHECK POINT  END OF SOLVER       

       ELAPSED USER TIME (SEC)      =   0.0000    
       ELAPSED SYSTEM TIME (SEC)    =   0.0000    
       ELAPSED TOTAL CPU TIME (SEC) =   0.0000    
       ELAPSED WALLCLOCK TIME (SEC) =          0

               CONVERGENCE CHECKS FOR EQUILIBRIUM ITERATION     2


 AVERAGE FORCE                       12.6       TIME AVG. FORCE        5.01    
 LARGEST RESIDUAL FORCE             9.967E-03   AT NODE          1   DOF  1
 LARGEST INCREMENT OF DISP.          2.72       AT NODE          1   DOF  2
 LARGEST CORRECTION TO DISP.       -8.609E-03   AT NODE          1   DOF  2
          THE FORCE     EQUILIBRIUM EQUATIONS HAVE CONVERGED

 AVERAGE MOMENT                      938.       TIME AVG. MOMENT       379.    
 LARGEST RESIDUAL MOMENT           -3.790E-04   AT NODE          5   DOF  6
 LARGEST INCREMENT OF ROTATION     -4.478E-02   AT NODE          1   DOF  6
 LARGEST CORRECTION TO ROTATION     2.510E-04   AT NODE          1   DOF  6
          THE MOMENT    EQUILIBRIUM EQUATIONS HAVE CONVERGED

 ITERATION SUMMARY FOR THE INCREMENT:   2 TOTAL ITERATIONS, OF WHICH
   0 ARE SEVERE DISCONTINUITY ITERATIONS AND  2 ARE EQUILIBRIUM ITERATIONS.

 TIME INCREMENT COMPLETED  9.042E-02,  FRACTION OF STEP COMPLETED  0.970    
 STEP TIME COMPLETED       0.970    ,  TOTAL TIME COMPLETED        0.970    

     RESTART INFORMATION WRITTEN IN STEP   1  AFTER INCREMENT    13


  INCREMENT    14 STARTS. ATTEMPT NUMBER  1, TIME INCREMENT  3.014E-02

  NUMBER OF EQUATIONS =       18     NUMBER OF FLOATING PT. OPERATIONS =  6.33E+02

     CHECK POINT   START OF SOLVER    

     CHECK POINT  END OF SOLVER       

       ELAPSED USER TIME (SEC)      =   0.0000    
       ELAPSED SYSTEM TIME (SEC)    =   0.0000    
       ELAPSED TOTAL CPU TIME (SEC) =   0.0000    
       ELAPSED WALLCLOCK TIME (SEC) =          0

               CONVERGENCE CHECKS FOR EQUILIBRIUM ITERATION     1


 AVERAGE FORCE                       10.5       TIME AVG. FORCE        5.40    
 LARGEST RESIDUAL FORCE            -1.428E-02   AT NODE          1   DOF  2
 LARGEST INCREMENT OF DISP.         0.867       AT NODE          1   DOF  2
 LARGEST CORRECTION TO DISP.       -3.981E-02   AT NODE          1   DOF  2
 ESTIMATE OF DISP.    CORRECTION    3.799E-06
 FORCE     EQUILIB. ACCEPTED BASED ON SMALL RESIDUAL AND ESTIMATED CORRECTION

 AVERAGE MOMENT                      865.       TIME AVG. MOMENT       414.    
 LARGEST RESIDUAL MOMENT           -0.199       AT NODE          4   DOF  6
 LARGEST INCREMENT OF ROTATION     -1.444E-02   AT NODE          1   DOF  6
 LARGEST CORRECTION TO ROTATION     4.908E-04   AT NODE          1   DOF  6
 ESTIMATE OF ROTATION CORRECTION   -9.469E-05
 MOMENT    EQUILIB. ACCEPTED BASED ON SMALL RESIDUAL AND ESTIMATED CORRECTION

 ITERATION SUMMARY FOR THE INCREMENT:   1 TOTAL ITERATIONS, OF WHICH
   0 ARE SEVERE DISCONTINUITY ITERATIONS AND  1 ARE EQUILIBRIUM ITERATIONS.

 TIME INCREMENT COMPLETED  3.014E-02,  FRACTION OF STEP COMPLETED   1.00    
 STEP TIME COMPLETED        1.00    ,  TOTAL TIME COMPLETED         1.00    

     RESTART INFORMATION WRITTEN IN STEP   1  AFTER INCREMENT    14


          THE ANALYSIS HAS BEEN COMPLETED



     ANALYSIS SUMMARY:
     TOTAL OF         14  INCREMENTS
                       1  CUTBACKS IN AUTOMATIC INCREMENTATION
                      39  ITERATIONS INCLUDING CONTACT ITERATIONS IF PRESENT
                      39  PASSES THROUGH THE EQUATION SOLVER OF WHICH 
                      39  INVOLVE MATRIX DECOMPOSITION, INCLUDING
                       0  DECOMPOSITION(S) OF THE MASS MATRIX
                       1  REORDERING OF EQUATIONS TO MINIMIZE WAVEFRONT
                       0  ADDITIONAL RESIDUAL EVALUATIONS FOR LINE SEARCHES
                       0  ADDITIONAL OPERATOR EVALUATIONS FOR LINE SEARCHES
                       0  WARNING MESSAGES DURING USER INPUT PROCESSING
                       2  WARNING MESSAGES DURING ANALYSIS
                       0  ANALYSIS WARNINGS ARE NUMERICAL PROBLEM MESSAGES
                       2  ANALYSIS WARNINGS ARE NEGATIVE EIGENVALUE MESSAGES
                       0  ERROR MESSAGES



     JOB TIME SUMMARY
       USER TIME (SEC)      =  0.30000    
       SYSTEM TIME (SEC)    =  0.20000    
       TOTAL CPU TIME (SEC) =  0.50000    
       WALLCLOCK TIME (SEC) =          1
