 Abaqus/Standard 6.14-3                  DATE 17-10-2017 TIME 17:06:13
 SUMMARY OF JOB INFORMATION:
 STEP  INC ATT SEVERE EQUIL TOTAL  TOTAL      STEP       INC OF       DOF    IF
               DISCON ITERS ITERS  TIME/    TIME/LPF    TIME/LPF    MONITOR RIKS
               ITERS               FREQ
   1     1   1     0     2     2  0.0100     0.0100     0.01000   
   1     2   1     0     1     1  0.0200     0.0200     0.01000   
   1     3   1     0     2     2  0.0350     0.0350     0.01500   
   1     4   1     0     2     2  0.0575     0.0575     0.02250   
   1     5   1     0     2     2  0.0912     0.0912     0.03375   
   1     6   1     0     2     2  0.142      0.142      0.05063   
   1     7   1     0     2     2  0.218      0.218      0.07594   
   1     8   1     0     3     3  0.332      0.332      0.1139    
   1     9   1     0     4     4  0.503      0.503      0.1709    
   1    10   1     0     6     6  0.759      0.759      0.2563    
   1    11   1U    0     5     5  0.759      0.759      0.2411    
   1    11   2     0     3     3  0.819      0.819      0.06028   
   1    12   1     0     2     2  0.879      0.879      0.06028   
   1    13   1     0     2     2  0.970      0.970      0.09042   
   1    14   1     0     1     1  1.00       1.00       0.03014   
                          
 THE ANALYSIS HAS COMPLETED SUCCESSFULLY
