*Heading
** Job name: Beam_Analysis Model name: Beam
** Generated by: Abaqus/CAE 6.13-1
*Preprint, echo=NO, model=NO, history=NO, contact=NO
**
** PARTS
**
*Part, name=Beam
*Node
      1,         -10.,         -10.,         200.
      2,         -10.,          -5.,         200.
      3,         -10.,           0.,         200.
      4,         -10.,           5.,         200.
      5,         -10.,          10.,         200.
      6,         -10.,         -10.,         195.
      7,         -10.,          -5.,         195.
      8,         -10.,           0.,         195.
      9,         -10.,           5.,         195.
     10,         -10.,          10.,         195.
     11,         -10.,         -10.,         190.
     12,         -10.,          -5.,         190.
     13,         -10.,           0.,         190.
     14,         -10.,           5.,         190.
     15,         -10.,          10.,         190.
     16,         -10.,         -10.,         185.
     17,         -10.,          -5.,         185.
     18,         -10.,           0.,         185.
     19,         -10.,           5.,         185.
     20,         -10.,          10.,         185.
** ... 1005 like lines cut
*Element, type=C3D8R
  1,  206,  207,  212,  211,    1,    2,    7,    6
  2,  207,  208,  213,  212,    2,    3,    8,    7
  3,  208,  209,  214,  213,    3,    4,    9,    8
  4,  209,  210,  215,  214,    4,    5,   10,    9
  5,  211,  212,  217,  216,    6,    7,   12,   11
  6,  212,  213,  218,  217,    7,    8,   13,   12
  7,  213,  214,  219,  218,    8,    9,   14,   13
  8,  214,  215,  220,  219,    9,   10,   15,   14
  9,  216,  217,  222,  221,   11,   12,   17,   16
 10,  217,  218,  223,  222,   12,   13,   18,   17
 11,  218,  219,  224,  223,   13,   14,   19,   18
 12,  219,  220,  225,  224,   14,   15,   20,   19
 13,  221,  222,  227,  226,   16,   17,   22,   21
 14,  222,  223,  228,  227,   17,   18,   23,   22
 15,  223,  224,  229,  228,   18,   19,   24,   23
 16,  224,  225,  230,  229,   19,   20,   25,   24
 17,  226,  227,  232,  231,   21,   22,   27,   26
 18,  227,  228,  233,  232,   22,   23,   28,   27
 19,  228,  229,  234,  233,   23,   24,   29,   28
 20,  229,  230,  235,  234,   24,   25,   30,   29
** ... 620 like lines cut
*Nset, nset=Set-1, generate
    1,  1025,     1
*Elset, elset=Set-1, generate
   1,  640,    1
** Section: Homogeneous
*Solid Section, elset=Set-1, material=Steel
,
*End Part
**  
**
** ASSEMBLY
**
*Assembly, name=Assembly
**  
*Instance, name=Beam-1, part=Beam
*End Instance
**  
*Nset, nset=Set-1, instance=Beam-1
  201,  202,  203,  204,  205,  406,  407,  408,  409,  410,  611,  612,  613,  614,  615,  816
  817,  818,  819,  820, 1021, 1022, 1023, 1024, 1025
*Elset, elset=Set-1, instance=Beam-1
 157, 158, 159, 160, 317, 318, 319, 320, 477, 478, 479, 480, 637, 638, 639, 640
*Elset, elset=_Surf-1_S4, internal, instance=Beam-1, generate
   4,  640,    4
*Surface, type=ELEMENT, name=Surf-1
_Surf-1_S4, S4
*End Assembly
** 
** MATERIALS
** 
*Material, name=Steel
*Elastic
210000., 0.3
** ----------------------------------------------------------------
** 
** STEP: Static_Step
** 
*Step, name=Static_Step, nlgeom=NO
*Static
0.1, 1., 1e-05, 1.
** 
** BOUNDARY CONDITIONS
** 
** Name: BC-1 Type: Symmetry/Antisymmetry/Encastre
*Boundary
Set-1, PINNED
** 
** LOADS
** 
** Name: Load-1   Type: Pressure
*Dsload
Surf-1, P, 100.
** 
** OUTPUT REQUESTS
** 
*Restart, write, frequency=0
** 
** FIELD OUTPUT: F-Output-1
** 
*Output, field, variable=PRESELECT
** 
** HISTORY OUTPUT: H-Output-1
** 
*Output, history, variable=PRESELECT
*End Step
